Circuit: * Z:\home\xenir\kicad\Space-Invaders\ltspice\sound-circuits.asc

.OP point found by inspection.

Date: Wed Oct 05 14:43:48 2022
Total elapsed time: 13.243 seconds.

tnom = 27
temp = 27
method = modified trap
totiter = 755597
traniter = 755597
tranpoints = 290987
accept = 217343
rejected = 73644
matrix size = 173
fillins = 86
solver = Normal
Thread vector: 12.2/5.3[4] 4.6/2.5[4] 2.8/1.7[4] 0.7/1.4[1]  2592/500
Matrix Compiler1: 17.56 KB object code size  2.8/1.5/[0.8]
Matrix Compiler2: 17.52 KB object code size  1.3/1.8/[0.7]

