Circuit: * Z:\home\xenir\kicad\Space-Invaders\ltspice\sound-circuits.asc

.OP point found by inspection.

Date: Wed Oct 05 14:35:56 2022
Total elapsed time: 13.194 seconds.

tnom = 27
temp = 27
method = modified trap
totiter = 753246
traniter = 753246
tranpoints = 286378
accept = 214190
rejected = 72188
matrix size = 173
fillins = 86
solver = Normal
Thread vector: 13.0/7.5[4] 4.7/2.9[4] 4.2/1.9[4] 0.7/1.5[1]  2592/500
Matrix Compiler1: 17.56 KB object code size  3.3/1.6/[0.8]
Matrix Compiler2: 17.52 KB object code size  1.9/2.4/[0.7]

