Circuit: * Z:\home\xenir\git\Space-Invaders\ltspice\sound-circuits.asc

.OP point found by inspection.

Date: Thu Oct 06 15:46:45 2022
Total elapsed time: 15.837 seconds.

tnom = 27
temp = 27
method = modified trap
totiter = 755866
traniter = 755866
tranpoints = 291095
accept = 217399
rejected = 73696
matrix size = 173
fillins = 86
solver = Normal
Thread vector: 19.9/10.9[4] 7.1/4.0[4] 4.0/2.5[4] 1.2/1.9[1]  2592/500
Matrix Compiler1: 17.56 KB object code size  3.7/2.7/[1.8]
Matrix Compiler2: 17.52 KB object code size  1.7/3.2/[1.5]

